Version 4
SHEET 1 880 680
WIRE 192 80 144 80
WIRE 64 128 64 80
FLAG 64 208 0
FLAG 192 160 0
SYMBOL voltage 64 112 R0
WINDOW 123 0 0 Left 0
WINDOW 39 0 0 Left 0
SYMATTR InstName V1
SYMATTR Value PULSE(-5 5 0 10n 10n 0.5u 1u)
SYMBOL res 160 64 R90
WINDOW 0 0 56 VBottom 2
WINDOW 3 32 56 VTop 2
SYMATTR InstName R1
SYMATTR Value 50
SYMBOL ind 176 64 R0
SYMATTR InstName L1
SYMATTR Value 3µ
TEXT 30 232 Left 2 !.tran 10u
