Version 4
SHEET 1 2408 680
WIRE 240 -640 -96 -640
WIRE 368 -640 240 -640
WIRE 432 -640 368 -640
WIRE 592 -640 512 -640
WIRE 864 -640 656 -640
WIRE -96 -608 -96 -640
WIRE 240 -576 240 -640
WIRE 368 -560 368 -640
WIRE 864 -560 864 -640
WIRE 368 -480 368 -496
WIRE 240 -432 240 -512
WIRE 368 -432 368 -480
WIRE -96 -400 -96 -448
WIRE 864 -400 864 -480
FLAG -96 -400 0
FLAG 864 -400 0
FLAG 240 -432 0
FLAG 368 -432 0
SYMBOL voltage -96 -544 R0
WINDOW 3 24 152 Left 2
WINDOW 123 24 124 Left 2
WINDOW 39 0 0 Left 0
SYMATTR Value ""
SYMATTR Value2 AC 2
SYMATTR InstName V2
SYMBOL res -80 -512 R180
WINDOW 0 36 76 Left 2
WINDOW 3 36 40 Left 2
SYMATTR InstName R3
SYMATTR Value 50
SYMBOL res 848 -576 R0
SYMATTR InstName R4
SYMATTR Value 50
SYMBOL cap 224 -576 R0
SYMATTR InstName C1
SYMATTR Value 29.96n
SYMBOL ind 352 -576 R0
SYMATTR InstName L1
SYMATTR Value 93.94n
SYMBOL ind 416 -624 R270
WINDOW 0 32 56 VTop 2
WINDOW 3 5 56 VBottom 2
SYMATTR InstName L2
SYMATTR Value 74.909µ
SYMBOL cap 656 -656 R90
WINDOW 0 0 32 VBottom 2
WINDOW 3 32 32 VTop 2
SYMATTR InstName C2
SYMATTR Value 37.57p
TEXT -64 -352 Left 2 !.ac oct 100 1.5meg 6meg
